/*--------------------------------*- C++ -*----------------------------------*\
| =========                 |                                                 |
| \\      /  F ield         | OpenFOAM: The Open Source CFD Toolbox           |
|  \\    /   O peration     | Version:  plus                                  |
|   \\  /    A nd           | Web:      www.OpenFOAM.com                      |
|    \\/     M anipulation  |                                                 |
\*---------------------------------------------------------------------------*/
FoamFile
{
    version     2.0;
    format      ascii;
    class       dictionary;
    location    "system";
    object      controlDict;
}
// * * * * * * * * * * * * * * * * * * * * * * * * * * * * * * * * * * * * * //

// Copied from https://www.openfoam.com/documentation/guides/latest/doc/guide-case-system-controldict.html
// Still needs to be adapted for our y-connector

application     icoFoam;

startFrom       startTime;

startTime       0;

stopAt          endTime;

endTime         {{cookiecutter.end_time_s}};

deltaT          {{cookiecutter.delta_time_s}};

writeControl    timeStep;

writeInterval   {{cookiecutter.write_interval_steps}};

purgeWrite      {{cookiecutter.purge_write if 'purge_write' in cookiecutter else 10}}; // keep only the latest N result time step folders

writeFormat     ascii;

writePrecision  7;

writeCompression off;

timeFormat      general;

timePrecision   6;

// adjustTimeStep  false;

runTimeModifiable true;

functions
{
    // Function objects
    #includeFunc residuals
}

// ************************************************************************* //
