/*--------------------------------*- C++ -*----------------------------------*\
| =========                 |                                                 |
| \\      /  F ield         | OpenFOAM: The Open Source CFD Toolbox           |
|  \\    /   O peration     | Version:  v1812                                 |
|   \\  /    A nd           | Web:      www.OpenFOAM.com                      |
|    \\/     M anipulation  |                                                 |
\*---------------------------------------------------------------------------*/
FoamFile
{
    version     2.0;
    format      ascii;
    class       volVectorField;
    object      U;
}
// * * * * * * * * * * * * * * * * * * * * * * * * * * * * * * * * * * * * * //

// TODO: what do these values mean?
dimensions [0 1 -1 0 0 0 0];

internalField uniform (0 0 0);

boundaryField
{
    outletPatch
    {
        type zeroGradient;
    }

    backgroundInletPatch
    {
        value uniform (0 0 0); // placeholder
{% if cookiecutter.bg_flow_mlpmin != '0' %}
        type flowRateInletVelocity;
        volumetricFlowRate {{(cookiecutter.bg_flow_mlpmin|float) * 1e-6 / 60}};
        // ^ Volumetric/mass flow rate [m3/s or kg/s]; 1 ml/min = 1e-6 / 60 m3/s
        extrapolateProfile false;
{% else %}
        type fixedValue;
{% endif %}
    }

    particleInletPatch
    {
        value uniform (0 0 0); // TODO: is this necessary for type flowRateInletVelocity?
{% if cookiecutter.inlet_flow_mlpmin != '0' %}
        type flowRateInletVelocity;
        volumetricFlowRate {{(cookiecutter.inlet_flow_mlpmin|float) * 1e-6 / 60}};
        // ^ Volumetric/mass flow rate [m3/s or kg/s]; 1 ml/min = 1e-6 / 60 m3/s
        extrapolateProfile false;
{% else %}
        type fixedValue;
{% endif %}
    }

    yConnectorPatch
    {
        type fixedValue;
        value uniform (0 0 0);
    }

    propagationTubePatch
    {
        type fixedValue;
        value uniform (0 0 0);
    }
}
